           14

   B        2.35411376        2.35411376        1.93993337
   B        2.35411376        2.35411376        3.70993337
   H        3.34562376        2.35411376        2.82497637
   H        1.36260376        2.35411376        2.82497637
   H        2.35411376        3.39564976        4.28964537
   H        2.35411376        1.31257776        4.28964537
   H        2.35411376        1.31257776        1.36022137
   H        2.35411376        3.39564976        1.36022137
     X        2.35411376        2.35411376        2.82496863
     X        2.35411376        2.35411376        2.82486679
     X        2.35411375        2.35411376        2.82497995
     X        2.35411375        2.35411376        2.82500199
     X        2.35411375        2.35411375        2.82497868
     X        2.35411376        2.35411376        2.82485664
           14

   B        2.35411376        2.35411376        1.93993337
   B        2.35411376        2.35411376        3.70993337
   H        3.34562376        2.35411376        2.82497637
   H        1.36260376        2.35411376        2.82497637
   H        2.35411376        3.39564976        4.28964537
   H        2.35411376        1.31257776        4.28964537
   H        2.35411376        1.31257776        1.36022137
   H        2.35411376        3.39564976        1.36022137
     X        2.35411376        1.57966639        1.51798276
     X        3.01652205        2.35411376        2.82496479
     X        2.35411375        3.12856094        4.13188447
     X        2.35411375        3.12856111        1.51798274
     X        1.69170546        2.35411375        2.82496479
     X        2.35411376        1.57966657        4.13188449
